test/data_sources/DC_overlay_grid_6.0_GW_convdc.json
{"busdc":{"4":{"Vdc":1,"name":"Bus_dc_4","bus_type":1,"Cdc":0,"qd":0.0,"gs":0.0,"bs":0.0,"source_id":["busdc",4],"area":2,"busdc_i":4,"index":4,"vm":1.0,"Vdcmax":1.1,"Vdcmin":0.9,"pd":0.0,"Pdc":0},"1":{"Vdc":1,"name":"Bus_dc_1","bus_type":1,"Cdc":0,"qd":0.0,"gs":0.0,"bs":0.0,"source_id":["busdc",1],"area":2,"busdc_i":1,"index":1,"vm":1.0,"Vdcmax":1.1,"Vdcmin":0.9,"pd":0.0,"Pdc":0},"12":{"Vdc":1,"name":"Bus_dc_12","bus_type":1,"Cdc":0,"qd":0.0,"gs":0.0,"bs":0.0,"source_id":["busdc",12],"area":2,"busdc_i":12,"index":12,"vm":1.0,"Vdcmax":1.1,"Vdcmin":0.9,"pd":0.0,"Pdc":0},"2":{"Vdc":1,"name":"Bus_dc_2","bus_type":1,"Cdc":0,"qd":0.0,"gs":0.0,"bs":0.0,"source_id":["busdc",2],"area":2,"busdc_i":2,"index":2,"vm":1.0,"Vdcmax":1.1,"Vdcmin":0.9,"pd":0.0,"Pdc":0},"6":{"Vdc":1,"name":"Bus_dc_6","bus_type":1,"Cdc":0,"qd":0.0,"gs":0.0,"bs":0.0,"source_id":["busdc",6],"area":2,"busdc_i":6,"index":6,"vm":1.0,"Vdcmax":1.1,"Vdcmin":0.9,"pd":0.0,"Pdc":0},"11":{"Vdc":1,"name":"Bus_dc_11","bus_type":1,"Cdc":0,"qd":0.0,"gs":0.0,"bs":0.0,"source_id":["busdc",11],"area":2,"busdc_i":11,"index":11,"vm":1.0,"Vdcmax":1.1,"Vdcmin":0.9,"pd":0.0,"Pdc":0},"13":{"Vdc":1,"name":"Bus_dc_13","bus_type":1,"Cdc":0,"qd":0.0,"gs":0.0,"bs":0.0,"source_id":["busdc",13],"area":2,"busdc_i":13,"index":13,"vm":1.0,"Vdcmax":1.1,"Vdcmin":0.9,"pd":0.0,"Pdc":0},"5":{"Vdc":1,"name":"Bus_dc_5","bus_type":1,"Cdc":0,"qd":0.0,"gs":0.0,"bs":0.0,"source_id":["busdc",5],"area":2,"busdc_i":5,"index":5,"vm":1.0,"Vdcmax":1.1,"Vdcmin":0.9,"pd":0.0,"Pdc":0},"14":{"Vdc":1,"name":"Bus_dc_14","bus_type":1,"Cdc":0,"qd":0.0,"gs":0.0,"bs":0.0,"source_id":["busdc",14],"area":2,"busdc_i":14,"index":14,"vm":1.0,"Vdcmax":1.1,"Vdcmin":0.9,"pd":0.0,"Pdc":0},"7":{"Vdc":1,"name":"Bus_dc_7","bus_type":1,"Cdc":0,"qd":0.0,"gs":0.0,"bs":0.0,"source_id":["busdc",7],"area":2,"busdc_i":7,"index":7,"vm":1.0,"Vdcmax":1.1,"Vdcmin":0.9,"pd":0.0,"Pdc":0},"8":{"Vdc":1,"name":"Bus_dc_8","bus_type":1,"Cdc":0,"qd":0.0,"gs":0.0,"bs":0.0,"source_id":["busdc",8],"area":2,"busdc_i":8,"index":8,"vm":1.0,"Vdcmax":1.1,"Vdcmin":0.9,"pd":0.0,"Pdc":0},"10":{"Vdc":1,"name":"Bus_dc_10","bus_type":1,"Cdc":0,"qd":0.0,"gs":0.0,"bs":0.0,"source_id":["busdc",10],"area":2,"busdc_i":10,"index":10,"vm":1.0,"Vdcmax":1.1,"Vdcmin":0.9,"pd":0.0,"Pdc":0},"9":{"Vdc":1,"name":"Bus_dc_9","bus_type":1,"Cdc":0,"qd":0.0,"gs":0.0,"bs":0.0,"source_id":["busdc",9],"area":2,"busdc_i":9,"index":9,"vm":1.0,"Vdcmax":1.1,"Vdcmin":0.9,"pd":0.0,"Pdc":0},"3":{"Vdc":1,"name":"Bus_dc_3","bus_type":1,"Cdc":0,"qd":0.0,"gs":0.0,"bs":0.0,"source_id":["busdc",3],"area":2,"busdc_i":3,"index":3,"vm":1.0,"Vdcmax":1.1,"Vdcmin":0.9,"pd":0.0,"Pdc":0}},"base_kv_AC":380,"bus":{"4":{"bus_i":4,"name":"Bus_4","bus_type":1,"qd":0.0,"gs":0.0,"bs":0.0,"vmax":1.1,"source_id":["bus",4],"area":1,"vmin":0.9,"index":4,"va":1.0,"vm":1.0,"base_kv":380,"pd":0.0},"1":{"bus_i":1,"name":"Bus_1","bus_type":1,"qd":0.0,"gs":0.0,"bs":0.0,"vmax":1.1,"source_id":["bus",1],"area":1,"vmin":0.9,"index":1,"va":1.0,"vm":1.0,"base_kv":380,"pd":0.0},"5":{"bus_i":5,"name":"Bus_5","bus_type":1,"qd":0.0,"gs":0.0,"bs":0.0,"vmax":1.1,"source_id":["bus",5],"area":1,"vmin":0.9,"index":5,"va":1.0,"vm":1.0,"base_kv":380,"pd":0.0},"2":{"bus_i":2,"name":"Bus_2","bus_type":1,"qd":0.0,"gs":0.0,"bs":0.0,"vmax":1.1,"source_id":["bus",2],"area":1,"vmin":0.9,"index":2,"va":1.0,"vm":1.0,"base_kv":380,"pd":0.0},"6":{"bus_i":6,"name":"Bus_6","bus_type":1,"qd":0.0,"gs":0.0,"bs":0.0,"vmax":1.1,"source_id":["bus",6],"area":1,"vmin":0.9,"index":6,"va":1.0,"vm":1.0,"base_kv":380,"pd":0.0},"3":{"bus_i":3,"name":"Bus_3","bus_type":3,"qd":0.0,"gs":0.0,"bs":0.0,"vmax":1.1,"source_id":["bus",3],"area":1,"vmin":0.9,"index":3,"va":1.0,"vm":1.0,"base_kv":380,"pd":0.0}},"dcpol":2,"source_type":"matpower","name":"DC_overlay_grid","dcline":[],"branch":{"5":{"br_r":0.0033204062788550325,"rate_a":27.0,"ratio":1,"shift":0.0,"rate_b":27.0,"br_x":0.019518120960295475,"rate_c":27.0,"g_to":0.0,"g_fr":0.0,"b_fr":4.4047891405475476e-5,"source_id":["branch",5],"f_bus":3,"br_status":1,"t_bus":4,"b_to":4.4047891405475476e-5,"index":5,"angmin":-3.141592653589793,"angmax":3.141592653589793,"transformer":false,"tap":1.0,"type":"AC_line"},"6":{"br_r":0.00385595567867036,"rate_a":27.0,"ratio":1,"shift":0.0,"rate_b":27.0,"br_x":0.02266620498614958,"rate_c":27.0,"g_to":0.0,"g_fr":0.0,"b_fr":3.793012871027055e-5,"source_id":["branch",6],"f_bus":3,"br_status":1,"t_bus":5,"b_to":3.793012871027055e-5,"index":6,"angmin":-3.141592653589793,"angmax":3.141592653589793,"transformer":false,"tap":1.0,"type":"AC_line"},"7":{"br_r":0.0011964017774699907,"rate_a":58.0,"ratio":1,"shift":0.0,"rate_b":58.0,"br_x":0.0076682248384118195,"rate_c":58.0,"g_to":0.0,"g_fr":0.0,"b_fr":0.00011215533980582526,"source_id":["branch",7],"f_bus":3,"br_status":1,"t_bus":6,"b_to":0.00011215533980582526,"index":7,"angmin":-3.141592653589793,"angmax":3.141592653589793,"transformer":false,"tap":1.0,"type":"AC_line"}},"gen":{"24":{"model":2,"name":"Conventional_gen_6","marginal_cost":2.0,"gen_bus":6,"pmax":620.0,"vg":1.0,"source_id":["gen",24],"index":24,"cost":[100.0,0.0],"qmax":310.0,"gen_status":1,"qmin":-310.0,"co2_add_on":1.0,"type":"Conventional","ncost":2,"pmin":0.0},"4":{"model":2,"name":"Solar_PV_4","marginal_cost":0.0,"gen_bus":4,"pmax":5160.0,"vg":1.0,"source_id":["gen",4],"index":4,"cost":[0.0,0.0],"qmax":2580.0,"gen_status":1,"qmin":-2580.0,"co2_add_on":0.0,"type":"Solar PV","ncost":2,"pmin":0.0},"1":{"model":2,"name":"Solar_PV_1","marginal_cost":0.0,"gen_bus":1,"pmax":1960.0,"vg":1.0,"source_id":["gen",1],"index":1,"cost":[0.0,0.0],"qmax":980.0,"gen_status":1,"qmin":-980.0,"co2_add_on":0.0,"type":"Solar PV","ncost":2,"pmin":0.0},"12":{"model":2,"name":"Onshore_Wind_6","marginal_cost":0.0,"gen_bus":6,"pmax":880.0,"vg":1.0,"source_id":["gen",12],"index":12,"cost":[25.0,0.0],"qmax":440.0,"gen_status":1,"qmin":-440.0,"co2_add_on":0.0,"type":"Onshore Wind","ncost":2,"pmin":0.0},"29":{"model":2,"name":"VOLL_gen_5","marginal_cost":2.0,"gen_bus":5,"pmax":0.0,"vg":1.0,"source_id":["gen",29],"index":29,"cost":[500.0,0.0],"qmax":0.0,"gen_status":1,"qmin":0.0,"co2_add_on":1.0,"type":"VOLL","ncost":2,"pmin":0.0},"20":{"model":2,"name":"Conventional_gen_2","marginal_cost":2.0,"gen_bus":2,"pmax":520.0,"vg":1.0,"source_id":["gen",20],"index":20,"cost":[100.0,0.0],"qmax":260.0,"gen_status":1,"qmin":-260.0,"co2_add_on":1.0,"type":"Conventional","ncost":2,"pmin":0.0},"2":{"model":2,"name":"Solar_PV_2","marginal_cost":0.0,"gen_bus":2,"pmax":640.0,"vg":1.0,"source_id":["gen",2],"index":2,"cost":[0.0,0.0],"qmax":320.0,"gen_status":1,"qmin":-320.0,"co2_add_on":0.0,"type":"Solar PV","ncost":2,"pmin":0.0},"6":{"model":2,"name":"Solar_PV_6","marginal_cost":0.0,"gen_bus":6,"pmax":3090.0,"vg":1.0,"source_id":["gen",6],"index":6,"cost":[0.0,0.0],"qmax":1545.0,"gen_status":1,"qmin":-1545.0,"co2_add_on":0.0,"type":"Solar PV","ncost":2,"pmin":0.0},"25":{"model":2,"name":"VOLL_gen_1","marginal_cost":2.0,"gen_bus":1,"pmax":0.0,"vg":1.0,"source_id":["gen",25],"index":25,"cost":[500.0,0.0],"qmax":0.0,"gen_status":1,"qmin":0.0,"co2_add_on":1.0,"type":"VOLL","ncost":2,"pmin":0.0},"23":{"model":2,"name":"Conventional_gen_5","marginal_cost":2.0,"gen_bus":5,"pmax":1520.0,"vg":1.0,"source_id":["gen",23],"index":23,"cost":[100.0,0.0],"qmax":760.0,"gen_status":1,"qmin":-760.0,"co2_add_on":1.0,"type":"Conventional","ncost":2,"pmin":0.0},"22":{"model":2,"name":"Conventional_gen_4","marginal_cost":2.0,"gen_bus":4,"pmax":860.0,"vg":1.0,"source_id":["gen",22],"index":22,"cost":[100.0,0.0],"qmax":430.0,"gen_status":1,"qmin":-430.0,"co2_add_on":1.0,"type":"Conventional","ncost":2,"pmin":0.0},"11":{"model":2,"name":"Onshore_Wind_5","marginal_cost":0.0,"gen_bus":5,"pmax":1350.0,"vg":1.0,"source_id":["gen",11],"index":11,"cost":[25.0,0.0],"qmax":675.0,"gen_status":1,"qmin":-675.0,"co2_add_on":0.0,"type":"Onshore Wind","ncost":2,"pmin":0.0},"13":{"model":2,"name":"Offshore_Wind_1","marginal_cost":0.0,"gen_bus":1,"pmax":1080.0,"vg":1.0,"source_id":["gen",13],"index":13,"cost":[50.0,0.0],"qmax":540.0,"gen_status":1,"qmin":-540.0,"co2_add_on":0.0,"type":"Offshore Wind","ncost":2,"pmin":0.0},"5":{"model":2,"name":"Solar_PV_5","marginal_cost":0.0,"gen_bus":5,"pmax":5050.0,"vg":1.0,"source_id":["gen",5],"index":5,"cost":[0.0,0.0],"qmax":2525.0,"gen_status":1,"qmin":-2525.0,"co2_add_on":0.0,"type":"Solar PV","ncost":2,"pmin":0.0},"15":{"model":2,"name":"Offshore_Wind_3","marginal_cost":0.0,"gen_bus":3,"pmax":2100.0,"vg":1.0,"source_id":["gen",15],"index":15,"cost":[50.0,0.0],"qmax":1050.0,"gen_status":1,"qmin":-1050.0,"co2_add_on":0.0,"type":"Offshore Wind","ncost":2,"pmin":0.0},"27":{"model":2,"name":"VOLL_gen_3","marginal_cost":2.0,"gen_bus":3,"pmax":0.0,"vg":1.0,"source_id":["gen",27],"index":27,"cost":[500.0,0.0],"qmax":0.0,"gen_status":1,"qmin":0.0,"co2_add_on":1.0,"type":"VOLL","ncost":2,"pmin":0.0},"28":{"model":2,"name":"VOLL_gen_4","marginal_cost":2.0,"gen_bus":4,"pmax":0.0,"vg":1.0,"source_id":["gen",28],"index":28,"cost":[500.0,0.0],"qmax":0.0,"gen_status":1,"qmin":0.0,"co2_add_on":1.0,"type":"VOLL","ncost":2,"pmin":0.0},"16":{"model":2,"name":"Offshore_Wind_4","marginal_cost":0.0,"gen_bus":4,"pmax":250.0,"vg":1.0,"source_id":["gen",16],"index":16,"cost":[50.0,0.0],"qmax":125.0,"gen_status":1,"qmin":-125.0,"co2_add_on":0.0,"type":"Offshore Wind","ncost":2,"pmin":0.0},"14":{"model":2,"name":"Offshore_Wind_2","marginal_cost":0.0,"gen_bus":2,"pmax":90.0,"vg":1.0,"source_id":["gen",14],"index":14,"cost":[50.0,0.0],"qmax":45.0,"gen_status":1,"qmin":-45.0,"co2_add_on":0.0,"type":"Offshore Wind","ncost":2,"pmin":0.0},"21":{"model":2,"name":"Conventional_gen_3","marginal_cost":2.0,"gen_bus":3,"pmax":1090.0,"vg":1.0,"source_id":["gen",21],"index":21,"cost":[100.0,0.0],"qmax":545.0,"gen_status":1,"qmin":-545.0,"co2_add_on":1.0,"type":"Conventional","ncost":2,"pmin":0.0},"7":{"model":2,"name":"Onshore_Wind_1","marginal_cost":0.0,"gen_bus":1,"pmax":540.0,"vg":1.0,"source_id":["gen",7],"index":7,"cost":[25.0,0.0],"qmax":270.0,"gen_status":1,"qmin":-270.0,"co2_add_on":0.0,"type":"Onshore Wind","ncost":2,"pmin":0.0},"8":{"model":2,"name":"Onshore_Wind_2","marginal_cost":0.0,"gen_bus":2,"pmax":1090.0,"vg":1.0,"source_id":["gen",8],"index":8,"cost":[25.0,0.0],"qmax":545.0,"gen_status":1,"qmin":-545.0,"co2_add_on":0.0,"type":"Onshore Wind","ncost":2,"pmin":0.0},"26":{"model":2,"name":"VOLL_gen_2","marginal_cost":2.0,"gen_bus":2,"pmax":0.0,"vg":1.0,"source_id":["gen",26],"index":26,"cost":[500.0,0.0],"qmax":0.0,"gen_status":1,"qmin":0.0,"co2_add_on":1.0,"type":"VOLL","ncost":2,"pmin":0.0},"17":{"model":2,"name":"Offshore_Wind_5","marginal_cost":0.0,"gen_bus":5,"pmax":40.0,"vg":1.0,"source_id":["gen",17],"index":17,"cost":[50.0,0.0],"qmax":20.0,"gen_status":1,"qmin":-20.0,"co2_add_on":0.0,"type":"Offshore Wind","ncost":2,"pmin":0.0},"10":{"model":2,"name":"Onshore_Wind_4","marginal_cost":0.0,"gen_bus":4,"pmax":2180.0,"vg":1.0,"source_id":["gen",10],"index":10,"cost":[25.0,0.0],"qmax":1090.0,"gen_status":1,"qmin":-1090.0,"co2_add_on":0.0,"type":"Onshore Wind","ncost":2,"pmin":0.0},"19":{"model":2,"name":"Conventional_gen_1","marginal_cost":2.0,"gen_bus":1,"pmax":220.0,"vg":1.0,"source_id":["gen",19],"index":19,"cost":[100.0,0.0],"qmax":110.0,"gen_status":1,"qmin":-110.0,"co2_add_on":1.0,"type":"Conventional","ncost":2,"pmin":0.0},"9":{"model":2,"name":"Onshore_Wind_3","marginal_cost":0.0,"gen_bus":3,"pmax":1970.0,"vg":1.0,"source_id":["gen",9],"index":9,"cost":[25.0,0.0],"qmax":985.0,"gen_status":1,"qmin":-985.0,"co2_add_on":0.0,"type":"Onshore Wind","ncost":2,"pmin":0.0},"18":{"model":2,"name":"Offshore_Wind_6","marginal_cost":0.0,"gen_bus":6,"pmax":190.0,"vg":1.0,"source_id":["gen",18],"index":18,"cost":[50.0,0.0],"qmax":95.0,"gen_status":1,"qmin":-95.0,"co2_add_on":0.0,"type":"Offshore Wind","ncost":2,"pmin":0.0},"30":{"model":2,"name":"VOLL_gen_6","marginal_cost":2.0,"gen_bus":6,"pmax":0.0,"vg":1.0,"source_id":["gen",30],"index":30,"cost":[500.0,0.0],"qmax":0.0,"gen_status":1,"qmin":0.0,"co2_add_on":1.0,"type":"VOLL","ncost":2,"pmin":0.0},"3":{"model":2,"name":"Solar_PV_3","marginal_cost":0.0,"gen_bus":3,"pmax":5600.0,"vg":1.0,"source_id":["gen",3],"index":3,"cost":[0.0,0.0],"qmax":2800.0,"gen_status":1,"qmin":-2800.0,"co2_add_on":0.0,"type":"Solar PV","ncost":2,"pmin":0.0}},"storage":{},"switch":{},"baseMVA":100,"base_kv_DC":525,"convdc":{"24":{"Vdcset":1.0079,"Pdcset":-0.586274,"LossA":0.01103,"rtf":7.139943474719271e-5,"xc":0.0012493061337239429,"LossB":0.0014843759094817334,"tm":1,"LossCrec":0.0008079535111671216,"lossB":2.303627574066607,"type_ac":1,"bf":13.608978,"ratio":0,"reactor":0,"Vmmax":1.1,"rc":4.1643537790798196e-5,"busdc_i":9,"droop":0.005,"transformer":0,"LossCinv":0.0008079535111671216,"dVdcset":0,"Pacmax":60.0,"source_id":["convdc",24],"Q_g":-0.4,"basekVac":345,"index":24,"Vmmin":0.9,"Pg":0.0,"Pacrated":60.0,"Vtar":1,"filter":0,"lossCrec":0.0008423333333333334,"xtf":0.0024989802161517367,"Imax":11180.339887498949,"Qacrated":0.0,"status":1,"islcc":0,"Qacmin":0.0,"busac_i":1,"Qacmax":0.0,"type_dc":1,"Pacmin":-60.0,"lossA":6.6198,"P_g":-0.6,"type":"PtP_link"},"4":{"Vdcset":1.0079,"Pdcset":-0.586274,"LossA":0.01103,"rtf":7.139943474719271e-5,"xc":0.0012493061337239429,"LossB":0.0014843759094817334,"tm":1,"LossCrec":0.0008079535111671216,"lossB":2.303627574066607,"type_ac":1,"bf":13.608978,"ratio":0,"reactor":0,"Vmmax":1.1,"rc":4.1643537790798196e-5,"busdc_i":4,"droop":0.005,"transformer":0,"LossCinv":0.0008079535111671216,"dVdcset":0,"Pacmax":60.0,"source_id":["convdc",4],"Q_g":-0.4,"basekVac":345,"index":4,"Vmmin":0.9,"Pg":0.0,"Pacrated":60.0,"Vtar":1,"filter":0,"lossCrec":0.0008423333333333334,"xtf":0.0024989802161517367,"Imax":11180.339887498949,"Qacrated":0.0,"status":1,"islcc":0,"Qacmin":0.0,"busac_i":4,"Qacmax":0.0,"type_dc":1,"Pacmin":-60.0,"lossA":6.6198,"P_g":-0.6},"1":{"Vdcset":1.0079,"Pdcset":-0.586274,"LossA":0.01103,"rtf":7.139943474719271e-5,"xc":0.0012493061337239429,"LossB":0.0014843759094817334,"tm":1,"LossCrec":0.0008079535111671216,"lossB":2.303627574066607,"type_ac":1,"bf":13.608978,"ratio":0,"reactor":0,"Vmmax":1.1,"rc":4.1643537790798196e-5,"busdc_i":1,"droop":0.005,"transformer":0,"LossCinv":0.0008079535111671216,"dVdcset":0,"Pacmax":60.0,"source_id":["convdc",1],"Q_g":-0.4,"basekVac":345,"index":1,"Vmmin":0.9,"Pg":0.0,"Pacrated":60.0,"Vtar":1,"filter":0,"lossCrec":0.0008423333333333334,"xtf":0.0024989802161517367,"Imax":11180.339887498949,"Qacrated":0.0,"status":1,"islcc":0,"Qacmin":0.0,"busac_i":1,"Qacmax":0.0,"type_dc":1,"Pacmin":-60.0,"lossA":6.6198,"P_g":-0.6},"12":{"Vdcset":1.0079,"Pdcset":-0.586274,"LossA":0.01103,"rtf":7.139943474719271e-5,"xc":0.0012493061337239429,"LossB":0.0014843759094817334,"tm":1,"LossCrec":0.0008079535111671216,"lossB":2.303627574066607,"type_ac":1,"bf":13.608978,"ratio":0,"reactor":0,"Vmmax":1.1,"rc":4.1643537790798196e-5,"busdc_i":1,"droop":0.005,"transformer":0,"LossCinv":0.0008079535111671216,"dVdcset":0,"Pacmax":60.0,"source_id":["convdc",12],"Q_g":-0.4,"basekVac":345,"index":12,"Vmmin":0.9,"Pg":0.0,"Pacrated":60.0,"Vtar":1,"filter":0,"lossCrec":0.0008423333333333334,"xtf":0.0024989802161517367,"Imax":11180.339887498949,"Qacrated":0.0,"status":1,"islcc":0,"Qacmin":0.0,"busac_i":1,"Qacmax":0.0,"type_dc":1,"Pacmin":-60.0,"lossA":6.6198,"P_g":-0.6},"29":{"Vdcset":1.0079,"Pdcset":-0.586274,"LossA":0.01103,"rtf":7.139943474719271e-5,"xc":0.0012493061337239429,"LossB":0.0014843759094817334,"tm":1,"LossCrec":0.0008079535111671216,"lossB":2.303627574066607,"type_ac":1,"bf":13.608978,"ratio":0,"reactor":0,"Vmmax":1.1,"rc":4.1643537790798196e-5,"busdc_i":14,"droop":0.005,"transformer":0,"LossCinv":0.0008079535111671216,"dVdcset":0,"Pacmax":60.0,"source_id":["convdc",29],"Q_g":-0.4,"basekVac":345,"index":29,"Vmmin":0.9,"Pg":0.0,"Pacrated":60.0,"Vtar":1,"filter":0,"lossCrec":0.0008423333333333334,"xtf":0.0024989802161517367,"Imax":11180.339887498949,"Qacrated":0.0,"status":1,"islcc":0,"Qacmin":0.0,"busac_i":3,"Qacmax":0.0,"type_dc":1,"Pacmin":-60.0,"lossA":6.6198,"P_g":-0.6,"type":"PtP_link"},"20":{"Vdcset":1.0079,"Pdcset":-0.586274,"LossA":0.01103,"rtf":7.139943474719271e-5,"xc":0.0012493061337239429,"LossB":0.0014843759094817334,"tm":1,"LossCrec":0.0008079535111671216,"lossB":2.303627574066607,"type_ac":1,"bf":13.608978,"ratio":0,"reactor":0,"Vmmax":1.1,"rc":4.1643537790798196e-5,"busdc_i":3,"droop":0.005,"transformer":0,"LossCinv":0.0008079535111671216,"dVdcset":0,"Pacmax":60.0,"source_id":["convdc",20],"Q_g":-0.4,"basekVac":345,"index":20,"Vmmin":0.9,"Pg":0.0,"Pacrated":60.0,"Vtar":1,"filter":0,"lossCrec":0.0008423333333333334,"xtf":0.0024989802161517367,"Imax":11180.339887498949,"Qacrated":0.0,"status":1,"islcc":0,"Qacmin":0.0,"busac_i":3,"Qacmax":0.0,"type_dc":1,"Pacmin":-60.0,"lossA":6.6198,"P_g":-0.6},"2":{"Vdcset":1.0079,"Pdcset":-0.586274,"LossA":0.01103,"rtf":7.139943474719271e-5,"xc":0.0012493061337239429,"LossB":0.0014843759094817334,"tm":1,"LossCrec":0.0008079535111671216,"lossB":2.303627574066607,"type_ac":1,"bf":13.608978,"ratio":0,"reactor":0,"Vmmax":1.1,"rc":4.1643537790798196e-5,"busdc_i":2,"droop":0.005,"transformer":0,"LossCinv":0.0008079535111671216,"dVdcset":0,"Pacmax":60.0,"source_id":["convdc",2],"Q_g":-0.4,"basekVac":345,"index":2,"Vmmin":0.9,"Pg":0.0,"Pacrated":60.0,"Vtar":1,"filter":0,"lossCrec":0.0008423333333333334,"xtf":0.0024989802161517367,"Imax":11180.339887498949,"Qacrated":0.0,"status":1,"islcc":0,"Qacmin":0.0,"busac_i":2,"Qacmax":0.0,"type_dc":1,"Pacmin":-60.0,"lossA":6.6198,"P_g":-0.6},"6":{"Vdcset":1.0079,"Pdcset":-0.586274,"LossA":0.01103,"rtf":7.139943474719271e-5,"xc":0.0012493061337239429,"LossB":0.0014843759094817334,"tm":1,"LossCrec":0.0008079535111671216,"lossB":2.303627574066607,"type_ac":1,"bf":13.608978,"ratio":0,"reactor":0,"Vmmax":1.1,"rc":4.1643537790798196e-5,"busdc_i":6,"droop":0.005,"transformer":0,"LossCinv":0.0008079535111671216,"dVdcset":0,"Pacmax":60.0,"source_id":["convdc",6],"Q_g":-0.4,"basekVac":345,"index":6,"Vmmin":0.9,"Pg":0.0,"Pacrated":60.0,"Vtar":1,"filter":0,"lossCrec":0.0008423333333333334,"xtf":0.0024989802161517367,"Imax":11180.339887498949,"Qacrated":0.0,"status":1,"islcc":0,"Qacmin":0.0,"busac_i":6,"Qacmax":0.0,"type_dc":1,"Pacmin":-60.0,"lossA":6.6198,"P_g":-0.6},"25":{"Vdcset":1.0079,"Pdcset":-0.586274,"LossA":0.01103,"rtf":7.139943474719271e-5,"xc":0.0012493061337239429,"LossB":0.0014843759094817334,"tm":1,"LossCrec":0.0008079535111671216,"lossB":2.303627574066607,"type_ac":1,"bf":13.608978,"ratio":0,"reactor":0,"Vmmax":1.1,"rc":4.1643537790798196e-5,"busdc_i":11,"droop":0.005,"transformer":0,"LossCinv":0.0008079535111671216,"dVdcset":0,"Pacmax":60.0,"source_id":["convdc",25],"Q_g":-0.4,"basekVac":345,"index":25,"Vmmin":0.9,"Pg":0.0,"Pacrated":60.0,"Vtar":1,"filter":0,"lossCrec":0.0008423333333333334,"xtf":0.0024989802161517367,"Imax":11180.339887498949,"Qacrated":0.0,"status":1,"islcc":0,"Qacmin":0.0,"busac_i":1,"Qacmax":0.0,"type_dc":1,"Pacmin":-60.0,"lossA":6.6198,"P_g":-0.6,"type":"PtP_link"},"23":{"Vdcset":1.0079,"Pdcset":-0.586274,"LossA":0.01103,"rtf":7.139943474719271e-5,"xc":0.0012493061337239429,"LossB":0.0014843759094817334,"tm":1,"LossCrec":0.0008079535111671216,"lossB":2.303627574066607,"type_ac":1,"bf":13.608978,"ratio":0,"reactor":0,"Vmmax":1.1,"rc":4.1643537790798196e-5,"busdc_i":7,"droop":0.005,"transformer":0,"LossCinv":0.0008079535111671216,"dVdcset":0,"Pacmax":60.0,"source_id":["convdc",23],"Q_g":-0.4,"basekVac":345,"index":23,"Vmmin":0.9,"Pg":0.0,"Pacrated":60.0,"Vtar":1,"filter":0,"lossCrec":0.0008423333333333334,"xtf":0.0024989802161517367,"Imax":11180.339887498949,"Qacrated":0.0,"status":1,"islcc":0,"Qacmin":0.0,"busac_i":1,"Qacmax":0.0,"type_dc":1,"Pacmin":-60.0,"lossA":6.6198,"P_g":-0.6,"type":"PtP_link"},"22":{"Vdcset":1.0079,"Pdcset":-0.586274,"LossA":0.01103,"rtf":7.139943474719271e-5,"xc":0.0012493061337239429,"LossB":0.0014843759094817334,"tm":1,"LossCrec":0.0008079535111671216,"lossB":2.303627574066607,"type_ac":1,"bf":13.608978,"ratio":0,"reactor":0,"Vmmax":1.1,"rc":4.1643537790798196e-5,"busdc_i":3,"droop":0.005,"transformer":0,"LossCinv":0.0008079535111671216,"dVdcset":0,"Pacmax":60.0,"source_id":["convdc",22],"Q_g":-0.4,"basekVac":345,"index":22,"Vmmin":0.9,"Pg":0.0,"Pacrated":60.0,"Vtar":1,"filter":0,"lossCrec":0.0008423333333333334,"xtf":0.0024989802161517367,"Imax":11180.339887498949,"Qacrated":0.0,"status":1,"islcc":0,"Qacmin":0.0,"busac_i":3,"Qacmax":0.0,"type_dc":1,"Pacmin":-60.0,"lossA":6.6198,"P_g":-0.6},"11":{"Vdcset":1.0079,"Pdcset":-0.586274,"LossA":0.01103,"rtf":7.139943474719271e-5,"xc":0.0012493061337239429,"LossB":0.0014843759094817334,"tm":1,"LossCrec":0.0008079535111671216,"lossB":2.303627574066607,"type_ac":1,"bf":13.608978,"ratio":0,"reactor":0,"Vmmax":1.1,"rc":4.1643537790798196e-5,"busdc_i":4,"droop":0.005,"transformer":0,"LossCinv":0.0008079535111671216,"dVdcset":0,"Pacmax":60.0,"source_id":["convdc",11],"Q_g":-0.4,"basekVac":345,"index":11,"Vmmin":0.9,"Pg":0.0,"Pacrated":60.0,"Vtar":1,"filter":0,"lossCrec":0.0008423333333333334,"xtf":0.0024989802161517367,"Imax":11180.339887498949,"Qacrated":0.0,"status":1,"islcc":0,"Qacmin":0.0,"busac_i":4,"Qacmax":0.0,"type_dc":1,"Pacmin":-60.0,"lossA":6.6198,"P_g":-0.6},"13":{"Vdcset":1.0079,"Pdcset":-0.586274,"LossA":0.01103,"rtf":7.139943474719271e-5,"xc":0.0012493061337239429,"LossB":0.0014843759094817334,"tm":1,"LossCrec":0.0008079535111671216,"lossB":2.303627574066607,"type_ac":1,"bf":13.608978,"ratio":0,"reactor":0,"Vmmax":1.1,"rc":4.1643537790798196e-5,"busdc_i":5,"droop":0.005,"transformer":0,"LossCinv":0.0008079535111671216,"dVdcset":0,"Pacmax":60.0,"source_id":["convdc",13],"Q_g":-0.4,"basekVac":345,"index":13,"Vmmin":0.9,"Pg":0.0,"Pacrated":60.0,"Vtar":1,"filter":0,"lossCrec":0.0008423333333333334,"xtf":0.0024989802161517367,"Imax":11180.339887498949,"Qacrated":0.0,"status":1,"islcc":0,"Qacmin":0.0,"busac_i":5,"Qacmax":0.0,"type_dc":1,"Pacmin":-60.0,"lossA":6.6198,"P_g":-0.6},"5":{"Vdcset":1.0079,"Pdcset":-0.586274,"LossA":0.01103,"rtf":7.139943474719271e-5,"xc":0.0012493061337239429,"LossB":0.0014843759094817334,"tm":1,"LossCrec":0.0008079535111671216,"lossB":2.303627574066607,"type_ac":1,"bf":13.608978,"ratio":0,"reactor":0,"Vmmax":1.1,"rc":4.1643537790798196e-5,"busdc_i":5,"droop":0.005,"transformer":0,"LossCinv":0.0008079535111671216,"dVdcset":0,"Pacmax":60.0,"source_id":["convdc",5],"Q_g":-0.4,"basekVac":345,"index":5,"Vmmin":0.9,"Pg":0.0,"Pacrated":60.0,"Vtar":1,"filter":0,"lossCrec":0.0008423333333333334,"xtf":0.0024989802161517367,"Imax":11180.339887498949,"Qacrated":0.0,"status":1,"islcc":0,"Qacmin":0.0,"busac_i":5,"Qacmax":0.0,"type_dc":1,"Pacmin":-60.0,"lossA":6.6198,"P_g":-0.6},"15":{"Vdcset":1.0079,"Pdcset":-0.586274,"LossA":0.01103,"rtf":7.139943474719271e-5,"xc":0.0012493061337239429,"LossB":0.0014843759094817334,"tm":1,"LossCrec":0.0008079535111671216,"lossB":2.303627574066607,"type_ac":1,"bf":13.608978,"ratio":0,"reactor":0,"Vmmax":1.1,"rc":4.1643537790798196e-5,"busdc_i":5,"droop":0.005,"transformer":0,"LossCinv":0.0008079535111671216,"dVdcset":0,"Pacmax":60.0,"source_id":["convdc",15],"Q_g":-0.4,"basekVac":345,"index":15,"Vmmin":0.9,"Pg":0.0,"Pacrated":60.0,"Vtar":1,"filter":0,"lossCrec":0.0008423333333333334,"xtf":0.0024989802161517367,"Imax":11180.339887498949,"Qacrated":0.0,"status":1,"islcc":0,"Qacmin":0.0,"busac_i":5,"Qacmax":0.0,"type_dc":1,"Pacmin":-60.0,"lossA":6.6198,"P_g":-0.6},"27":{"Vdcset":1.0079,"Pdcset":-0.586274,"LossA":0.01103,"rtf":7.139943474719271e-5,"xc":0.0012493061337239429,"LossB":0.0014843759094817334,"tm":1,"LossCrec":0.0008079535111671216,"lossB":2.303627574066607,"type_ac":1,"bf":13.608978,"ratio":0,"reactor":0,"Vmmax":1.1,"rc":4.1643537790798196e-5,"busdc_i":13,"droop":0.005,"transformer":0,"LossCinv":0.0008079535111671216,"dVdcset":0,"Pacmax":60.0,"source_id":["convdc",27],"Q_g":-0.4,"basekVac":345,"index":27,"Vmmin":0.9,"Pg":0.0,"Pacrated":60.0,"Vtar":1,"filter":0,"lossCrec":0.0008423333333333334,"xtf":0.0024989802161517367,"Imax":11180.339887498949,"Qacrated":0.0,"status":1,"islcc":0,"Qacmin":0.0,"busac_i":2,"Qacmax":0.0,"type_dc":1,"Pacmin":-60.0,"lossA":6.6198,"P_g":-0.6,"type":"PtP_link"},"28":{"Vdcset":1.0079,"Pdcset":-0.586274,"LossA":0.01103,"rtf":7.139943474719271e-5,"xc":0.0012493061337239429,"LossB":0.0014843759094817334,"tm":1,"LossCrec":0.0008079535111671216,"lossB":2.303627574066607,"type_ac":1,"bf":13.608978,"ratio":0,"reactor":0,"Vmmax":1.1,"rc":4.1643537790798196e-5,"busdc_i":10,"droop":0.005,"transformer":0,"LossCinv":0.0008079535111671216,"dVdcset":0,"Pacmax":60.0,"source_id":["convdc",28],"Q_g":-0.4,"basekVac":345,"index":28,"Vmmin":0.9,"Pg":0.0,"Pacrated":60.0,"Vtar":1,"filter":0,"lossCrec":0.0008423333333333334,"xtf":0.0024989802161517367,"Imax":11180.339887498949,"Qacrated":0.0,"status":1,"islcc":0,"Qacmin":0.0,"busac_i":3,"Qacmax":0.0,"type_dc":1,"Pacmin":-60.0,"lossA":6.6198,"P_g":-0.6,"type":"PtP_link"},"16":{"Vdcset":1.0079,"Pdcset":-0.586274,"LossA":0.01103,"rtf":7.139943474719271e-5,"xc":0.0012493061337239429,"LossB":0.0014843759094817334,"tm":1,"LossCrec":0.0008079535111671216,"lossB":2.303627574066607,"type_ac":1,"bf":13.608978,"ratio":0,"reactor":0,"Vmmax":1.1,"rc":4.1643537790798196e-5,"busdc_i":2,"droop":0.005,"transformer":0,"LossCinv":0.0008079535111671216,"dVdcset":0,"Pacmax":60.0,"source_id":["convdc",16],"Q_g":-0.4,"basekVac":345,"index":16,"Vmmin":0.9,"Pg":0.0,"Pacrated":60.0,"Vtar":1,"filter":0,"lossCrec":0.0008423333333333334,"xtf":0.0024989802161517367,"Imax":11180.339887498949,"Qacrated":0.0,"status":1,"islcc":0,"Qacmin":0.0,"busac_i":2,"Qacmax":0.0,"type_dc":1,"Pacmin":-60.0,"lossA":6.6198,"P_g":-0.6},"14":{"Vdcset":1.0079,"Pdcset":-0.586274,"LossA":0.01103,"rtf":7.139943474719271e-5,"xc":0.0012493061337239429,"LossB":0.0014843759094817334,"tm":1,"LossCrec":0.0008079535111671216,"lossB":2.303627574066607,"type_ac":1,"bf":13.608978,"ratio":0,"reactor":0,"Vmmax":1.1,"rc":4.1643537790798196e-5,"busdc_i":5,"droop":0.005,"transformer":0,"LossCinv":0.0008079535111671216,"dVdcset":0,"Pacmax":60.0,"source_id":["convdc",14],"Q_g":-0.4,"basekVac":345,"index":14,"Vmmin":0.9,"Pg":0.0,"Pacrated":60.0,"Vtar":1,"filter":0,"lossCrec":0.0008423333333333334,"xtf":0.0024989802161517367,"Imax":11180.339887498949,"Qacrated":0.0,"status":1,"islcc":0,"Qacmin":0.0,"busac_i":5,"Qacmax":0.0,"type_dc":1,"Pacmin":-60.0,"lossA":6.6198,"P_g":-0.6},"21":{"Vdcset":1.0079,"Pdcset":-0.586274,"LossA":0.01103,"rtf":7.139943474719271e-5,"xc":0.0012493061337239429,"LossB":0.0014843759094817334,"tm":1,"LossCrec":0.0008079535111671216,"lossB":2.303627574066607,"type_ac":1,"bf":13.608978,"ratio":0,"reactor":0,"Vmmax":1.1,"rc":4.1643537790798196e-5,"busdc_i":3,"droop":0.005,"transformer":0,"LossCinv":0.0008079535111671216,"dVdcset":0,"Pacmax":60.0,"source_id":["convdc",21],"Q_g":-0.4,"basekVac":345,"index":21,"Vmmin":0.9,"Pg":0.0,"Pacrated":60.0,"Vtar":1,"filter":0,"lossCrec":0.0008423333333333334,"xtf":0.0024989802161517367,"Imax":11180.339887498949,"Qacrated":0.0,"status":1,"islcc":0,"Qacmin":0.0,"busac_i":3,"Qacmax":0.0,"type_dc":1,"Pacmin":-60.0,"lossA":6.6198,"P_g":-0.6},"8":{"Vdcset":1.0079,"Pdcset":-0.586274,"LossA":0.01103,"rtf":7.139943474719271e-5,"xc":0.0012493061337239429,"LossB":0.0014843759094817334,"tm":1,"LossCrec":0.0008079535111671216,"lossB":2.303627574066607,"type_ac":1,"bf":13.608978,"ratio":0,"reactor":0,"Vmmax":1.1,"rc":4.1643537790798196e-5,"busdc_i":4,"droop":0.005,"transformer":0,"LossCinv":0.0008079535111671216,"dVdcset":0,"Pacmax":60.0,"source_id":["convdc",8],"Q_g":-0.4,"basekVac":345,"index":8,"Vmmin":0.9,"Pg":0.0,"Pacrated":60.0,"Vtar":1,"filter":0,"lossCrec":0.0008423333333333334,"xtf":0.0024989802161517367,"Imax":11180.339887498949,"Qacrated":0.0,"status":1,"islcc":0,"Qacmin":0.0,"busac_i":4,"Qacmax":0.0,"type_dc":1,"Pacmin":-60.0,"lossA":6.6198,"P_g":-0.6},"26":{"Vdcset":1.0079,"Pdcset":-0.586274,"LossA":0.01103,"rtf":7.139943474719271e-5,"xc":0.0012493061337239429,"LossB":0.0014843759094817334,"tm":1,"LossCrec":0.0008079535111671216,"lossB":2.303627574066607,"type_ac":1,"bf":13.608978,"ratio":0,"reactor":0,"Vmmax":1.1,"rc":4.1643537790798196e-5,"busdc_i":12,"droop":0.005,"transformer":0,"LossCinv":0.0008079535111671216,"dVdcset":0,"Pacmax":60.0,"source_id":["convdc",26],"Q_g":-0.4,"basekVac":345,"index":26,"Vmmin":0.9,"Pg":0.0,"Pacrated":60.0,"Vtar":1,"filter":0,"lossCrec":0.0008423333333333334,"xtf":0.0024989802161517367,"Imax":11180.339887498949,"Qacrated":0.0,"status":1,"islcc":0,"Qacmin":0.0,"busac_i":2,"Qacmax":0.0,"type_dc":1,"Pacmin":-60.0,"lossA":6.6198,"P_g":-0.6,"type":"PtP_link"},"17":{"Vdcset":1.0079,"Pdcset":-0.586274,"LossA":0.01103,"rtf":7.139943474719271e-5,"xc":0.0012493061337239429,"LossB":0.0014843759094817334,"tm":1,"LossCrec":0.0008079535111671216,"lossB":2.303627574066607,"type_ac":1,"bf":13.608978,"ratio":0,"reactor":0,"Vmmax":1.1,"rc":4.1643537790798196e-5,"busdc_i":6,"droop":0.005,"transformer":0,"LossCinv":0.0008079535111671216,"dVdcset":0,"Pacmax":60.0,"source_id":["convdc",17],"Q_g":-0.4,"basekVac":345,"index":17,"Vmmin":0.9,"Pg":0.0,"Pacrated":60.0,"Vtar":1,"filter":0,"lossCrec":0.0008423333333333334,"xtf":0.0024989802161517367,"Imax":11180.339887498949,"Qacrated":0.0,"status":1,"islcc":0,"Qacmin":0.0,"busac_i":6,"Qacmax":0.0,"type_dc":1,"Pacmin":-60.0,"lossA":6.6198,"P_g":-0.6},"10":{"Vdcset":1.0079,"Pdcset":-0.586274,"LossA":0.01103,"rtf":7.139943474719271e-5,"xc":0.0012493061337239429,"LossB":0.0014843759094817334,"tm":1,"LossCrec":0.0008079535111671216,"lossB":2.303627574066607,"type_ac":1,"bf":13.608978,"ratio":0,"reactor":0,"Vmmax":1.1,"rc":4.1643537790798196e-5,"busdc_i":4,"droop":0.005,"transformer":0,"LossCinv":0.0008079535111671216,"dVdcset":0,"Pacmax":60.0,"source_id":["convdc",10],"Q_g":-0.4,"basekVac":345,"index":10,"Vmmin":0.9,"Pg":0.0,"Pacrated":60.0,"Vtar":1,"filter":0,"lossCrec":0.0008423333333333334,"xtf":0.0024989802161517367,"Imax":11180.339887498949,"Qacrated":0.0,"status":1,"islcc":0,"Qacmin":0.0,"busac_i":4,"Qacmax":0.0,"type_dc":1,"Pacmin":-60.0,"lossA":6.6198,"P_g":-0.6},"19":{"Vdcset":1.0079,"Pdcset":-0.586274,"LossA":0.01103,"rtf":7.139943474719271e-5,"xc":0.0012493061337239429,"LossB":0.0014843759094817334,"tm":1,"LossCrec":0.0008079535111671216,"lossB":2.303627574066607,"type_ac":1,"bf":13.608978,"ratio":0,"reactor":0,"Vmmax":1.1,"rc":4.1643537790798196e-5,"busdc_i":3,"droop":0.005,"transformer":0,"LossCinv":0.0008079535111671216,"dVdcset":0,"Pacmax":60.0,"source_id":["convdc",19],"Q_g":-0.4,"basekVac":345,"index":19,"Vmmin":0.9,"Pg":0.0,"Pacrated":60.0,"Vtar":1,"filter":0,"lossCrec":0.0008423333333333334,"xtf":0.0024989802161517367,"Imax":11180.339887498949,"Qacrated":0.0,"status":1,"islcc":0,"Qacmin":0.0,"busac_i":3,"Qacmax":0.0,"type_dc":1,"Pacmin":-60.0,"lossA":6.6198,"P_g":-0.6},"9":{"Vdcset":1.0079,"Pdcset":-0.586274,"LossA":0.01103,"rtf":7.139943474719271e-5,"xc":0.0012493061337239429,"LossB":0.0014843759094817334,"tm":1,"LossCrec":0.0008079535111671216,"lossB":2.303627574066607,"type_ac":1,"bf":13.608978,"ratio":0,"reactor":0,"Vmmax":1.1,"rc":4.1643537790798196e-5,"busdc_i":4,"droop":0.005,"transformer":0,"LossCinv":0.0008079535111671216,"dVdcset":0,"Pacmax":60.0,"source_id":["convdc",9],"Q_g":-0.4,"basekVac":345,"index":9,"Vmmin":0.9,"Pg":0.0,"Pacrated":60.0,"Vtar":1,"filter":0,"lossCrec":0.0008423333333333334,"xtf":0.0024989802161517367,"Imax":11180.339887498949,"Qacrated":0.0,"status":1,"islcc":0,"Qacmin":0.0,"busac_i":4,"Qacmax":0.0,"type_dc":1,"Pacmin":-60.0,"lossA":6.6198,"P_g":-0.6},"18":{"Vdcset":1.0079,"Pdcset":-0.586274,"LossA":0.01103,"rtf":7.139943474719271e-5,"xc":0.0012493061337239429,"LossB":0.0014843759094817334,"tm":1,"LossCrec":0.0008079535111671216,"lossB":2.303627574066607,"type_ac":1,"bf":13.608978,"ratio":0,"reactor":0,"Vmmax":1.1,"rc":4.1643537790798196e-5,"busdc_i":3,"droop":0.005,"transformer":0,"LossCinv":0.0008079535111671216,"dVdcset":0,"Pacmax":60.0,"source_id":["convdc",18],"Q_g":-0.4,"basekVac":345,"index":18,"Vmmin":0.9,"Pg":0.0,"Pacrated":60.0,"Vtar":1,"filter":0,"lossCrec":0.0008423333333333334,"xtf":0.0024989802161517367,"Imax":11180.339887498949,"Qacrated":0.0,"status":1,"islcc":0,"Qacmin":0.0,"busac_i":3,"Qacmax":0.0,"type_dc":1,"Pacmin":-60.0,"lossA":6.6198,"P_g":-0.6},"30":{"Vdcset":1.0079,"Pdcset":-0.586274,"LossA":0.01103,"rtf":7.139943474719271e-5,"xc":0.0012493061337239429,"LossB":0.0014843759094817334,"tm":1,"LossCrec":0.0008079535111671216,"lossB":2.303627574066607,"type_ac":1,"bf":13.608978,"ratio":0,"reactor":0,"Vmmax":1.1,"rc":4.1643537790798196e-5,"busdc_i":8,"droop":0.005,"transformer":0,"LossCinv":0.0008079535111671216,"dVdcset":0,"Pacmax":60.0,"source_id":["convdc",30],"Q_g":-0.4,"basekVac":345,"index":30,"Vmmin":0.9,"Pg":0.0,"Pacrated":60.0,"Vtar":1,"filter":0,"lossCrec":0.0008423333333333334,"xtf":0.0024989802161517367,"Imax":11180.339887498949,"Qacrated":0.0,"status":1,"islcc":0,"Qacmin":0.0,"busac_i":4,"Qacmax":0.0,"type_dc":1,"Pacmin":-60.0,"lossA":6.6198,"P_g":-0.6,"type":"PtP_link"},"3":{"Vdcset":1.0079,"Pdcset":-0.586274,"LossA":0.01103,"rtf":7.139943474719271e-5,"xc":0.0012493061337239429,"LossB":0.0014843759094817334,"tm":1,"LossCrec":0.0008079535111671216,"lossB":2.303627574066607,"type_ac":1,"bf":13.608978,"ratio":0,"reactor":0,"Vmmax":1.1,"rc":4.1643537790798196e-5,"busdc_i":3,"droop":0.005,"transformer":0,"LossCinv":0.0008079535111671216,"dVdcset":0,"Pacmax":60.0,"source_id":["convdc",3],"Q_g":-0.4,"basekVac":345,"index":3,"Vmmin":0.9,"Pg":0.0,"Pacrated":60.0,"Vtar":1,"filter":0,"lossCrec":0.0008423333333333334,"xtf":0.0024989802161517367,"Imax":11180.339887498949,"Qacrated":0.0,"status":1,"islcc":0,"Qacmin":0.0,"busac_i":3,"Qacmax":0.0,"type_dc":1,"Pacmin":-60.0,"lossA":6.6198,"P_g":-0.6}},"per_unit":true,"shunt":{},"load":{"4":{"cosphi":0.9,"source_id":["bus",4],"load_bus":4,"status":1,"pmax":1532.6078221399898,"pavg":1097.2889679973177,"qd":334.02413083940866,"pd":766.3039110699949,"index":4},"1":{"cosphi":0.9,"source_id":["bus",1],"load_bus":1,"status":1,"pmax":747.57046915,"pavg":505.8948464631425,"qd":162.929206410007,"pd":373.785234575,"index":1},"5":{"cosphi":0.9,"source_id":["bus",5],"load_bus":5,"status":1,"pmax":1964.3116602169998,"pavg":1586.9143708026852,"qd":428.11180102522525,"pd":982.1558301084999,"index":5},"2":{"cosphi":0.9,"source_id":["bus",2],"load_bus":2,"status":1,"pmax":867.85527203,"pavg":615.5657387331631,"qd":189.1446714198885,"pd":433.927636015,"index":2},"6":{"cosphi":0.9,"source_id":["bus",6],"load_bus":6,"status":1,"pmax":936.0709356,"pavg":674.5056350763447,"qd":204.01193061329846,"pd":468.0354678,"index":6},"3":{"cosphi":0.9,"source_id":["bus",3],"load_bus":3,"status":1,"pmax":1668.06016344999,"pavg":1284.6325923933125,"qd":363.54528421122217,"pd":834.030081724995,"index":3}},"branchdc":{"4":{"c":0.0,"ratio":1,"r":8.178291837398264e-5,"status":1,"rateB":100.0,"fbusdc":3,"source_id":["branchdc",4],"rateA":100.0,"l":0.0,"index":4,"rateC":100.0,"tbusdc":4,"type":"DC_grid"},"1":{"c":0.0,"ratio":1,"r":0.001336667052994125,"status":1,"rateB":7.5,"fbusdc":1,"source_id":["branchdc",1],"rateA":7.5,"l":0.0,"index":1,"rateC":7.5,"tbusdc":3,"type":"DC_grid"},"12":{"c":0.0,"ratio":1,"r":0.000804733492933978,"status":1,"rateB":30.0,"fbusdc":13,"source_id":["branchdc",12],"rateA":30.0,"l":0.0,"index":12,"rateC":30.0,"tbusdc":14,"type":"PtP_link"},"2":{"c":0.0,"ratio":1,"r":5.276317314450493e-5,"status":1,"rateB":100.0,"fbusdc":1,"source_id":["branchdc",2],"rateA":100.0,"l":0.0,"index":2,"rateC":100.0,"tbusdc":4,"type":"DC_grid"},"6":{"c":0.0,"ratio":1,"r":6.595396643063116e-5,"status":1,"rateB":100.0,"fbusdc":3,"source_id":["branchdc",6],"rateA":100.0,"l":0.0,"index":6,"rateC":100.0,"tbusdc":6,"type":"DC_grid"},"11":{"c":0.0,"ratio":1,"r":0.00047337264290234004,"status":1,"rateB":30.0,"fbusdc":9,"source_id":["branchdc",11],"rateA":30.0,"l":0.0,"index":11,"rateC":30.0,"tbusdc":10,"type":"PtP_link"},"5":{"c":0.0,"ratio":1,"r":0.00014451146603816504,"status":1,"rateB":80.0,"fbusdc":3,"source_id":["branchdc",5],"rateA":80.0,"l":0.0,"index":5,"rateC":80.0,"tbusdc":5,"type":"DC_grid"},"7":{"c":0.0,"ratio":1,"r":9.233555300288363e-5,"status":1,"rateB":100.0,"fbusdc":4,"source_id":["branchdc",7],"rateA":100.0,"l":0.0,"index":7,"rateC":100.0,"tbusdc":5,"type":"DC_grid"},"8":{"c":0.0,"ratio":1,"r":0.0020050005794911875,"status":1,"rateB":5.0,"fbusdc":5,"source_id":["branchdc",8],"rateA":5.0,"l":0.0,"index":8,"rateC":5.0,"tbusdc":6,"type":"DC_grid"},"10":{"c":0.0,"ratio":1,"r":0.0008994080215144461,"status":1,"rateB":30.0,"fbusdc":11,"source_id":["branchdc",10],"rateA":30.0,"l":0.0,"index":10,"rateC":30.0,"tbusdc":12,"type":"PtP_link"},"9":{"c":0.0,"ratio":1,"r":0.0014201179287070202,"status":1,"rateB":30.0,"fbusdc":7,"source_id":["branchdc",9],"rateA":30.0,"l":0.0,"index":9,"rateC":30.0,"tbusdc":8,"type":"PtP_link"},"3":{"c":0.0,"ratio":1,"r":0.000136483051258267,"status":1,"rateB":80.0,"fbusdc":2,"source_id":["branchdc",3],"rateA":80.0,"l":0.0,"index":3,"rateC":80.0,"tbusdc":3,"type":"DC_grid"}},"Z_base":1444.0}